Circuit: * Z:\home\maxi\taller-de-proyecto-I\Esquematicos\Draft1.asc

Direct Newton iteration failed to find .op point.  (Use ".option noopiter" to skip.)
Starting Gmin stepping
Gmin = 10
Gmin = 1.07374
Gmin = 0.115292
Gmin = 0.0123794
Gmin = 0.00132923
Gmin = 0.000142725
Gmin = 1.5325e-005
Gmin = 1.6455e-006
Gmin = 1.76685e-007
Gmin = 1.89714e-008
Gmin = 2.03704e-009
Gmin = 2.18725e-010
Gmin = 2.34854e-011
Gmin = 2.52173e-012
Gmin = 2.70769e-013
Gmin = 0
Gmin stepping succeeded in finding the operating point.


Date: Mon Oct 29 12:13:16 2018
Total elapsed time: 0.128 seconds.

tnom = 27
temp = 27
method = modified trap
totiter = 2695
traniter = 2159
tranpoints = 1042
accept = 1042
rejected = 0
matrix size = 54
fillins = 52
solver = Normal
Matrix Compiler1: 5.07 KB object code size  1.4/0.9/[0.6]
Matrix Compiler2: 5.24 KB object code size  1.0/1.2/[0.6]

